data_none

_audit_creation_method generated by ABACUS

_cell_length_a 12.319
_cell_length_b 12.3323
_cell_length_c 15.4974
_cell_angle_alpha 90
_cell_angle_beta 90
_cell_angle_gamma 59.9643

_symmetry_space_group_name_H-M 
_symmetry_Int_Tables_number 

loop_
_atom_site_label
_atom_site_fract_x
_atom_site_fract_y
_atom_site_fract_z
C 0 0 0
C 0.2 0 0
C 0.4 0 0
C 0.6 0 0
C 0.8 0 0
C 0 0.2 0
C 0.2 0.2 0
C 0.4 0.2 0
C 0.6 0.2 0
C 0.8 0.2 0
C 0 0.4 0
C 0.2 0.4 0
C 0.4 0.4 0
C 0.6 0.4 0
C 0.8 0.4 0
C 0 0.6 0
C 0.2 0.6 0
C 0.4 0.6 0
C 0.6 0.6 0
C 0.8 0.6 0
C 0 0.8 0
C 0.2 0.8 0
C 0.4 0.8 0
C 0.6 0.8 0
C 0.8 0.8 0
C 0.0666666 0.066666 0
C 0.266667 0.066666 0
C 0.466667 0.066666 0
C 0.666667 0.066666 0
C 0.866667 0.066666 0
C 0.0666666 0.266666 0
C 0.266667 0.266666 0
C 0.466667 0.266666 0
C 0.666667 0.266666 0
C 0.866667 0.266666 0
C 0.0666666 0.466666 0
C 0.266667 0.466666 0
C 0.466667 0.466666 0
C 0.666667 0.466666 0
C 0.866667 0.466666 0
C 0.0666666 0.666666 0
C 0.266667 0.666666 0
C 0.466667 0.666666 0
C 0.666667 0.666666 0
C 0.866667 0.666666 0
C 0.0666666 0.866666 0
C 0.266667 0.866666 0
C 0.466667 0.866666 0
C 0.666667 0.866666 0
C 0.866667 0.866666 0
