data_none

_audit_creation_method generated by ABACUS

_cell_length_a 9.84
_cell_length_b 9.84
_cell_length_c 20
_cell_angle_alpha 90
_cell_angle_beta 90
_cell_angle_gamma 120

_symmetry_space_group_name_H-M 
_symmetry_Int_Tables_number 

loop_
_atom_site_label
_atom_site_fract_x
_atom_site_fract_y
_atom_site_fract_z
C 0 0 0.2
C 0.25 0 0.2
C 0.5 0 0.2
C 0.75 0 0.2
C 0 0.25 0.2
C 0.25 0.25 0.2
C 0.5 0.25 0.2
C 0.75 0.25 0.2
C 0 0.5 0.2
C 0.25 0.5 0.2
C 0.5 0.5 0.2
C 0.75 0.5 0.2
C 0 0.75 0.2
C 0.25 0.75 0.2
C 0.5 0.75 0.2
C 0.75 0.75 0.2
C 0.166667 0.0833332 0.2
C 0.416667 0.0833332 0.2
C 0.666667 0.0833332 0.2
C 0.916667 0.0833332 0.2
C 0.166667 0.333333 0.2
C 0.416667 0.333333 0.2
C 0.666667 0.333333 0.2
C 0.916667 0.333333 0.2
C 0.166667 0.583333 0.2
C 0.416667 0.583333 0.2
C 0.666667 0.583333 0.2
C 0.916667 0.583333 0.2
C 0.166667 0.833333 0.2
C 0.416667 0.833333 0.2
C 0.666667 0.833333 0.2
C 0.916667 0.833333 0.2
Mo 0.222222 0.111111 0.506315
Mo 0.555556 0.111111 0.506315
Mo 0.888889 0.111111 0.506315
Mo 0.222222 0.444444 0.506315
Mo 0.555556 0.444444 0.506315
Mo 0.888889 0.444444 0.506315
Mo 0.222222 0.777778 0.506315
Mo 0.555556 0.777778 0.506315
Mo 0.888889 0.777778 0.506315
S 0.111111 0.222222 0.581265
S 0.444444 0.222222 0.581265
S 0.777778 0.222222 0.581265
S 0.111111 0.555556 0.581265
S 0.444444 0.555556 0.581265
S 0.777778 0.555556 0.581265
S 0.111111 0.888889 0.581265
S 0.444444 0.888889 0.581265
S 0.777778 0.888889 0.581265
S 0.111111 0.222222 0.431365
S 0.444444 0.222222 0.431365
S 0.777778 0.222222 0.431365
S 0.111111 0.555556 0.431365
S 0.444444 0.555556 0.431365
S 0.777778 0.555556 0.431365
S 0.111111 0.888889 0.431365
S 0.444444 0.888889 0.431365
S 0.777778 0.888889 0.431365
